
OS:Version,
  {d83d9f9a-e181-43db-acef-7c70fe05db22}, !- Handle
  2.8.1;                                  !- Version Identifier

